169
10/22/2020 09:09, XYZ structure generated by mol3D Class, molSimplify
C 	1.230000	0.000000	0.000000
C 	0.000000	0.710141	0.000000
C 	0.000000	2.130422	0.000000
C 	1.230000	2.840563	0.000000
C 	1.230000	4.260845	0.000000
C 	0.000000	4.970986	0.000000
C 	0.000000	6.391267	0.000000
C 	1.230000	7.101408	0.000000
C 	1.230000	8.521690	0.000000
C 	0.000000	9.231831	0.000000
C 	0.000000	10.652112	0.000000
C 	1.230000	11.362253	0.000000
C 	1.230000	12.782535	0.000000
C 	0.000000	13.492676	0.000000
C 	0.000000	14.912957	0.000000
C 	1.230000	15.623098	0.000000
C 	3.690000	0.000000	0.000000
C 	2.460000	0.710141	0.000000
C 	2.460000	2.130422	0.000000
C 	3.690000	2.840563	0.000000
C 	3.690000	4.260845	0.000000
C 	2.460000	4.970986	0.000000
C 	2.460000	6.391267	0.000000
C 	3.690000	7.101408	0.000000
C 	3.690000	8.521690	0.000000
C 	2.460000	9.231831	0.000000
C 	2.460000	10.652112	0.000000
C 	3.690000	11.362253	0.000000
C 	3.690000	12.782535	0.000000
C 	2.460000	13.492676	0.000000
C 	2.460000	14.912957	0.000000
C 	3.690000	15.623098	0.000000
C 	6.150000	0.000000	0.000000
C 	4.920000	0.710141	0.000000
C 	4.920000	2.130422	0.000000
C 	6.150000	2.840563	0.000000
C 	6.150000	4.260845	0.000000
C 	4.920000	4.970986	0.000000
C 	4.920000	6.391267	0.000000
C 	6.150000	7.101408	0.000000
C 	6.150000	8.521690	0.000000
C 	4.920000	9.231831	0.000000
C 	4.920000	10.652112	0.000000
C 	6.150000	11.362253	0.000000
C 	6.150000	12.782535	0.000000
C 	4.920000	13.492676	0.000000
C 	4.920000	14.912957	0.000000
C 	6.150000	15.623098	0.000000
C 	8.610000	0.000000	0.000000
C 	7.380000	0.710141	0.000000
C 	7.380000	2.130422	0.000000
C 	8.610000	2.840563	0.000000
C 	8.610000	4.260845	0.000000
C 	7.380000	4.970986	0.000000
C 	7.380000	6.391267	0.000000
C 	8.610000	7.101408	0.000000
C 	8.610000	8.521690	0.000000
C 	7.380000	9.231831	0.000000
C 	7.380000	10.652112	0.000000
C 	8.610000	11.362253	0.000000
C 	8.610000	12.782535	0.000000
C 	7.380000	13.492676	0.000000
C 	7.380000	14.912957	0.000000
C 	8.610000	15.623098	0.000000
C 	11.070000	0.000000	0.000000
C 	9.840000	0.710141	0.000000
C 	9.840000	2.130422	0.000000
C 	11.070000	2.840563	0.000000
C 	11.070000	4.260845	0.000000
C 	9.840000	4.970986	0.000000
C 	9.840000	6.391267	0.000000
C 	11.070000	7.101408	0.000000
C 	11.070000	8.521690	0.000000
C 	9.840000	9.231831	0.000000
C 	9.840000	10.652112	0.000000
C 	11.070000	11.362253	0.000000
C 	11.070000	12.782535	0.000000
C 	9.840000	13.492676	0.000000
C 	9.840000	14.912957	0.000000
C 	11.070000	15.623098	0.000000
C 	13.530000	0.000000	0.000000
C 	12.300000	0.710141	0.000000
C 	12.300000	2.130422	0.000000
C 	13.530000	2.840563	0.000000
C 	13.530000	4.260845	0.000000
C 	12.300000	4.970986	0.000000
C 	12.300000	6.391267	0.000000
C 	13.530000	7.101408	0.000000
C 	13.530000	8.521690	0.000000
C 	12.300000	9.231831	0.000000
C 	12.300000	10.652112	0.000000
C 	13.530000	11.362253	0.000000
C 	13.530000	12.782535	0.000000
C 	12.300000	13.492676	0.000000
C 	12.300000	14.912957	0.000000
C 	13.530000	15.623098	0.000000
C 	15.990000	0.000000	0.000000
C 	14.760000	0.710141	0.000000
C 	14.760000	2.130422	0.000000
C 	15.990000	2.840563	0.000000
C 	15.990000	4.260845	0.000000
C 	14.760000	4.970986	0.000000
C 	14.760000	6.391267	0.000000
C 	15.990000	7.101408	0.000000
C 	15.990000	8.521690	0.000000
C 	14.760000	9.231831	0.000000
C 	14.760000	10.652112	0.000000
C 	15.990000	11.362253	0.000000
C 	15.990000	12.782535	0.000000
C 	14.760000	13.492676	0.000000
C 	14.760000	14.912957	0.000000
C 	15.990000	15.623098	0.000000
Cu 	7.415859	7.866962	2.852755
N 	7.420966	5.886553	2.844458
N 	5.098966	5.476050	2.884475
N 	5.426874	7.863921	2.861052
N 	9.716164	5.463229	3.000468
C 	8.490401	5.062451	2.955002
C 	8.072878	3.744718	3.064563
C 	8.772922	2.545540	3.209744
H 	9.853781	2.525485	3.238116
C 	8.023405	1.356195	3.326457
H 	8.530204	0.408011	3.443912
C 	6.611113	1.389878	3.298649
H 	6.043123	0.473405	3.395504
C 	5.934073	2.609970	3.151978
H 	4.851702	2.650928	3.136554
C 	6.702131	3.766726	3.036883
C 	6.326762	5.079758	2.908947
C 	4.647058	6.824157	2.815209
C 	3.223381	7.208254	2.696291
C 	2.042595	6.468280	2.626204
H 	2.058165	5.388134	2.660918
C 	0.825380	7.175134	2.508010
H 	-0.109644	6.636038	2.450717
C 	0.814715	8.588174	2.461780
H 	-0.119150	9.127081	2.368782
C 	2.017266	9.302957	2.536513
H 	2.035907	10.386146	2.503313
C 	3.191277	8.568678	2.654534
C 	4.556266	8.973938	2.750994
C 	10.161584	6.825942	2.968371
N 	9.384790	7.873760	2.861052
N 	7.430805	9.843614	2.844458
C 	6.306312	10.391953	2.817346
N 	4.957676	10.171060	2.738696
C 	6.704023	11.633581	2.917321
C 	5.939636	12.816660	2.964996
H 	4.857825	12.800832	2.908432
C 	6.608371	14.042148	3.093051
H 	6.041262	14.966429	3.134852
C 	8.011852	14.076848	3.172276
H 	8.513193	15.034026	3.275993
C 	8.757956	12.882366	3.119457
H 	9.836586	12.926378	3.184743
C 	8.068659	11.659196	2.990820
C 	8.529001	10.424932	2.929391
N 	9.875641	10.195315	2.980598
C 	10.263317	8.990478	2.939758
C 	11.619407	8.575489	3.098413
C 	12.791342	9.307460	3.239653
H 	12.779999	10.391136	3.209902
C 	13.978656	8.590145	3.433742
H 	14.909828	9.127724	3.553401
C 	13.954587	7.177219	3.484749
H 	14.875543	6.635677	3.646753
C 	12.740263	6.472995	3.333221
H 	12.710951	5.393382	3.379666
C 	11.576396	7.214818	3.136123
