36
11/27/2020 21:04, XYZ structure generated by mol3D Class, molSimplify
C 	1.230000	0.000000	0.000000
C 	0.000000	0.710141	0.000000
C 	0.000000	2.130422	0.000000
C 	1.230000	2.840563	0.000000
C 	1.230000	4.260845	0.000000
C 	0.000000	4.970986	0.000000
C 	0.000000	6.391267	0.000000
C 	1.230000	7.101408	0.000000
C 	3.690000	0.000000	0.000000
C 	2.460000	0.710141	0.000000
C 	2.460000	2.130422	0.000000
C 	3.690000	2.840563	0.000000
C 	3.690000	4.260845	0.000000
C 	2.460000	4.970986	0.000000
C 	2.460000	6.391267	0.000000
C 	3.690000	7.101408	0.000000
C 	6.150000	0.000000	0.000000
C 	4.920000	0.710141	0.000000
C 	4.920000	2.130422	0.000000
C 	6.150000	2.840563	0.000000
C 	6.150000	4.260845	0.000000
C 	4.920000	4.970986	0.000000
C 	4.920000	6.391267	0.000000
C 	6.150000	7.101408	0.000000
C 	4.676316	1.854248	3.000000
C 	3.329143	1.493383	3.000000
C 	2.342820	2.479706	3.000000
C 	2.703684	3.826879	3.000000
C 	4.050857	4.187744	3.000000
C 	5.037180	3.201421	3.000000
H 	5.447590	1.082973	3.000000
H 	3.046730	0.439988	3.000000
H 	1.289425	2.197293	3.000000
H 	1.932410	4.598153	3.000000
H 	4.333270	5.241138	3.000000
H 	6.090575	3.483833	3.000000
