36
10/19/2020 10:46, XYZ structure generated by mol3D Class, molSimplify
C 	1.230000	0.000000	0.000000
C 	0.000000	0.710141	0.000000
C 	0.000000	2.130422	0.000000
C 	1.230000	2.840563	0.000000
C 	1.230000	4.260845	0.000000
C 	0.000000	4.970986	0.000000
C 	0.000000	6.391267	0.000000
C 	1.230000	7.101408	0.000000
C 	3.690000	0.000000	0.000000
C 	2.460000	0.710141	0.000000
C 	2.460000	2.130422	0.000000
C 	3.690000	2.840563	0.000000
C 	3.690000	4.260845	0.000000
C 	2.460000	4.970986	0.000000
C 	2.460000	6.391267	0.000000
C 	3.690000	7.101408	0.000000
C 	6.150000	0.000000	0.000000
C 	4.920000	0.710141	0.000000
C 	4.920000	2.130422	0.000000
C 	6.150000	2.840563	0.000000
C 	6.150000	4.260845	0.000000
C 	4.920000	4.970986	0.000000
C 	4.920000	6.391267	0.000000
C 	6.150000	7.101408	0.000000
C 	4.387430	1.632578	3.000000
C 	2.992763	1.632684	3.000000
C 	2.295327	2.840678	3.000000
C 	2.992570	4.048548	3.000000
C 	4.387237	4.048443	3.000000
C 	5.084673	2.840449	3.000000
H 	4.932804	0.687964	3.000000
H 	2.447334	0.688277	3.000000
H 	1.204732	2.840527	3.000000
H 	2.447196	4.993163	3.000000
H 	4.932666	4.992850	3.000000
H 	6.175268	2.840600	3.000000
