57
04/28/2020 13:57, XYZ structure generated by mol3D Class, molSimplify
Cu 	0.000000	0.000000	0.000000
N 	0.005107	-1.980409	-0.008297
N 	-2.316893	-2.390912	0.031720
N 	-1.988985	-0.003041	0.008297
N 	2.300305	-2.403733	0.147713
C 	1.074542	-2.804511	0.102247
C 	0.657019	-4.122244	0.211808
C 	1.357063	-5.321422	0.356989
H 	2.437922	-5.341477	0.385361
C 	0.607546	-6.510767	0.473702
H 	1.114345	-7.458951	0.591157
C 	-0.804746	-6.477084	0.445894
H 	-1.372736	-7.393557	0.542749
C 	-1.481786	-5.256992	0.299223
H 	-2.564157	-5.216034	0.283799
C 	-0.713728	-4.100236	0.184128
C 	-1.089097	-2.787204	0.056192
C 	-2.768801	-1.042805	-0.037546
C 	-4.192478	-0.658708	-0.156464
C 	-5.373264	-1.398682	-0.226551
H 	-5.357694	-2.478828	-0.191837
C 	-6.590479	-0.691828	-0.344745
H 	-7.525503	-1.230924	-0.402038
C 	-6.601144	0.721212	-0.390975
H 	-7.535009	1.260119	-0.483973
C 	-5.398593	1.435995	-0.316242
H 	-5.379952	2.519184	-0.349442
C 	-4.224582	0.701716	-0.198221
C 	-2.859593	1.106976	-0.101761
C 	2.745725	-1.041020	0.115616
N 	1.968931	0.006798	0.008297
N 	0.014946	1.976652	-0.008297
C 	-1.109547	2.524991	-0.035409
N 	-2.458183	2.304098	-0.114059
C 	-0.711836	3.766619	0.064566
C 	-1.476223	4.949698	0.112241
H 	-2.558034	4.933870	0.055677
C 	-0.807488	6.175186	0.240296
H 	-1.374597	7.099467	0.282097
C 	0.595993	6.209886	0.319521
H 	1.097334	7.167064	0.423238
C 	1.342097	5.015404	0.266702
H 	2.420727	5.059416	0.331988
C 	0.652800	3.792234	0.138065
C 	1.113142	2.557970	0.076636
N 	2.459782	2.328353	0.127843
C 	2.847458	1.123516	0.087003
C 	4.203548	0.708527	0.245658
C 	5.375483	1.440498	0.386898
H 	5.364140	2.524174	0.357147
C 	6.562797	0.723183	0.580987
H 	7.493969	1.260762	0.700646
C 	6.538728	-0.689743	0.631994
H 	7.459684	-1.231285	0.793998
C 	5.324404	-1.393967	0.480466
H 	5.295092	-2.473580	0.526911
C 	4.160537	-0.652144	0.283368
