36
10/19/2020 10:46, XYZ structure generated by mol3D Class, molSimplify
C 	1.230000	0.000000	0.000000
C 	0.000000	0.710141	0.000000
C 	0.000000	2.130422	0.000000
C 	1.230000	2.840563	0.000000
C 	1.230000	4.260845	0.000000
C 	0.000000	4.970986	0.000000
C 	0.000000	6.391267	0.000000
C 	1.230000	7.101408	0.000000
C 	3.690000	0.000000	0.000000
C 	2.460000	0.710141	0.000000
C 	2.460000	2.130422	0.000000
C 	3.690000	2.840563	0.000000
C 	3.690000	4.260845	0.000000
C 	2.460000	4.970986	0.000000
C 	2.460000	6.391267	0.000000
C 	3.690000	7.101408	0.000000
C 	6.150000	0.000000	0.000000
C 	4.920000	0.710141	0.000000
C 	4.920000	2.130422	0.000000
C 	6.150000	2.840563	0.000000
C 	6.150000	4.260845	0.000000
C 	4.920000	4.970986	0.000000
C 	4.920000	6.391267	0.000000
C 	6.150000	7.101408	0.000000
C 	3.157430	2.342719	3.000000
C 	1.762763	2.342825	3.000000
C 	1.065327	3.550818	3.000000
C 	1.762570	4.758689	3.000000
C 	3.157237	4.758584	3.000000
C 	3.854673	3.550590	3.000000
H 	3.702804	1.398105	3.000000
H 	1.217334	1.398417	3.000000
H 	-0.025268	3.550668	3.000000
H 	1.217196	5.703304	3.000000
H 	3.702666	5.702991	3.000000
H 	4.945268	3.550741	3.000000
