169
10/22/2020 09:09, XYZ structure generated by mol3D Class, molSimplify
C 	1.230000	0.000000	0.000000
C 	0.000000	0.710141	0.000000
C 	0.000000	2.130422	0.000000
C 	1.230000	2.840563	0.000000
C 	1.230000	4.260845	0.000000
C 	0.000000	4.970986	0.000000
C 	0.000000	6.391267	0.000000
C 	1.230000	7.101408	0.000000
C 	1.230000	8.521690	0.000000
C 	0.000000	9.231831	0.000000
C 	0.000000	10.652112	0.000000
C 	1.230000	11.362253	0.000000
C 	1.230000	12.782535	0.000000
C 	0.000000	13.492676	0.000000
C 	0.000000	14.912957	0.000000
C 	1.230000	15.623098	0.000000
C 	3.690000	0.000000	0.000000
C 	2.460000	0.710141	0.000000
C 	2.460000	2.130422	0.000000
C 	3.690000	2.840563	0.000000
C 	3.690000	4.260845	0.000000
C 	2.460000	4.970986	0.000000
C 	2.460000	6.391267	0.000000
C 	3.690000	7.101408	0.000000
C 	3.690000	8.521690	0.000000
C 	2.460000	9.231831	0.000000
C 	2.460000	10.652112	0.000000
C 	3.690000	11.362253	0.000000
C 	3.690000	12.782535	0.000000
C 	2.460000	13.492676	0.000000
C 	2.460000	14.912957	0.000000
C 	3.690000	15.623098	0.000000
C 	6.150000	0.000000	0.000000
C 	4.920000	0.710141	0.000000
C 	4.920000	2.130422	0.000000
C 	6.150000	2.840563	0.000000
C 	6.150000	4.260845	0.000000
C 	4.920000	4.970986	0.000000
C 	4.920000	6.391267	0.000000
C 	6.150000	7.101408	0.000000
C 	6.150000	8.521690	0.000000
C 	4.920000	9.231831	0.000000
C 	4.920000	10.652112	0.000000
C 	6.150000	11.362253	0.000000
C 	6.150000	12.782535	0.000000
C 	4.920000	13.492676	0.000000
C 	4.920000	14.912957	0.000000
C 	6.150000	15.623098	0.000000
C 	8.610000	0.000000	0.000000
C 	7.380000	0.710141	0.000000
C 	7.380000	2.130422	0.000000
C 	8.610000	2.840563	0.000000
C 	8.610000	4.260845	0.000000
C 	7.380000	4.970986	0.000000
C 	7.380000	6.391267	0.000000
C 	8.610000	7.101408	0.000000
C 	8.610000	8.521690	0.000000
C 	7.380000	9.231831	0.000000
C 	7.380000	10.652112	0.000000
C 	8.610000	11.362253	0.000000
C 	8.610000	12.782535	0.000000
C 	7.380000	13.492676	0.000000
C 	7.380000	14.912957	0.000000
C 	8.610000	15.623098	0.000000
C 	11.070000	0.000000	0.000000
C 	9.840000	0.710141	0.000000
C 	9.840000	2.130422	0.000000
C 	11.070000	2.840563	0.000000
C 	11.070000	4.260845	0.000000
C 	9.840000	4.970986	0.000000
C 	9.840000	6.391267	0.000000
C 	11.070000	7.101408	0.000000
C 	11.070000	8.521690	0.000000
C 	9.840000	9.231831	0.000000
C 	9.840000	10.652112	0.000000
C 	11.070000	11.362253	0.000000
C 	11.070000	12.782535	0.000000
C 	9.840000	13.492676	0.000000
C 	9.840000	14.912957	0.000000
C 	11.070000	15.623098	0.000000
C 	13.530000	0.000000	0.000000
C 	12.300000	0.710141	0.000000
C 	12.300000	2.130422	0.000000
C 	13.530000	2.840563	0.000000
C 	13.530000	4.260845	0.000000
C 	12.300000	4.970986	0.000000
C 	12.300000	6.391267	0.000000
C 	13.530000	7.101408	0.000000
C 	13.530000	8.521690	0.000000
C 	12.300000	9.231831	0.000000
C 	12.300000	10.652112	0.000000
C 	13.530000	11.362253	0.000000
C 	13.530000	12.782535	0.000000
C 	12.300000	13.492676	0.000000
C 	12.300000	14.912957	0.000000
C 	13.530000	15.623098	0.000000
C 	15.990000	0.000000	0.000000
C 	14.760000	0.710141	0.000000
C 	14.760000	2.130422	0.000000
C 	15.990000	2.840563	0.000000
C 	15.990000	4.260845	0.000000
C 	14.760000	4.970986	0.000000
C 	14.760000	6.391267	0.000000
C 	15.990000	7.101408	0.000000
C 	15.990000	8.521690	0.000000
C 	14.760000	9.231831	0.000000
C 	14.760000	10.652112	0.000000
C 	15.990000	11.362253	0.000000
C 	15.990000	12.782535	0.000000
C 	14.760000	13.492676	0.000000
C 	14.760000	14.912957	0.000000
C 	15.990000	15.623098	0.000000
Cu 	8.645859	7.156821	2.852755
N 	8.650966	5.176412	2.844458
N 	6.328966	4.765909	2.884475
N 	6.656874	7.153780	2.861052
N 	10.946164	4.753088	3.000468
C 	9.720401	4.352310	2.955002
C 	9.302878	3.034577	3.064563
C 	10.002922	1.835399	3.209744
H 	11.083781	1.815344	3.238116
C 	9.253405	0.646054	3.326457
H 	9.760204	-0.302130	3.443912
C 	7.841113	0.679737	3.298649
H 	7.273123	-0.236736	3.395504
C 	7.164073	1.899829	3.151978
H 	6.081702	1.940787	3.136554
C 	7.932131	3.056585	3.036883
C 	7.556762	4.369617	2.908947
C 	5.877058	6.114016	2.815209
C 	4.453381	6.498113	2.696291
C 	3.272595	5.758139	2.626204
H 	3.288165	4.677993	2.660918
C 	2.055380	6.464993	2.508010
H 	1.120356	5.925897	2.450717
C 	2.044715	7.878033	2.461780
H 	1.110850	8.416940	2.368782
C 	3.247266	8.592816	2.536513
H 	3.265907	9.676005	2.503313
C 	4.421277	7.858537	2.654534
C 	5.786266	8.263797	2.750994
C 	11.391584	6.115801	2.968371
N 	10.614790	7.163619	2.861052
N 	8.660805	9.133473	2.844458
C 	7.536312	9.681812	2.817346
N 	6.187676	9.460919	2.738696
C 	7.934023	10.923440	2.917321
C 	7.169636	12.106519	2.964996
H 	6.087825	12.090691	2.908432
C 	7.838371	13.332007	3.093051
H 	7.271262	14.256288	3.134852
C 	9.241852	13.366707	3.172276
H 	9.743193	14.323885	3.275993
C 	9.987956	12.172225	3.119457
H 	11.066586	12.216237	3.184743
C 	9.298659	10.949055	2.990820
C 	9.759001	9.714791	2.929391
N 	11.105641	9.485174	2.980598
C 	11.493317	8.280337	2.939758
C 	12.849407	7.865348	3.098413
C 	14.021342	8.597319	3.239653
H 	14.009999	9.680995	3.209902
C 	15.208656	7.880004	3.433742
H 	16.139828	8.417583	3.553401
C 	15.184587	6.467078	3.484749
H 	16.105543	5.925536	3.646753
C 	13.970263	5.762854	3.333221
H 	13.940951	4.683241	3.379666
C 	12.806396	6.504677	3.136123
