169
10/22/2020 09:09, XYZ structure generated by mol3D Class, molSimplify
C 	1.230000	0.000000	0.000000
C 	0.000000	0.710141	0.000000
C 	0.000000	2.130422	0.000000
C 	1.230000	2.840563	0.000000
C 	1.230000	4.260845	0.000000
C 	0.000000	4.970986	0.000000
C 	0.000000	6.391267	0.000000
C 	1.230000	7.101408	0.000000
C 	1.230000	8.521690	0.000000
C 	0.000000	9.231831	0.000000
C 	0.000000	10.652112	0.000000
C 	1.230000	11.362253	0.000000
C 	1.230000	12.782535	0.000000
C 	0.000000	13.492676	0.000000
C 	0.000000	14.912957	0.000000
C 	1.230000	15.623098	0.000000
C 	3.690000	0.000000	0.000000
C 	2.460000	0.710141	0.000000
C 	2.460000	2.130422	0.000000
C 	3.690000	2.840563	0.000000
C 	3.690000	4.260845	0.000000
C 	2.460000	4.970986	0.000000
C 	2.460000	6.391267	0.000000
C 	3.690000	7.101408	0.000000
C 	3.690000	8.521690	0.000000
C 	2.460000	9.231831	0.000000
C 	2.460000	10.652112	0.000000
C 	3.690000	11.362253	0.000000
C 	3.690000	12.782535	0.000000
C 	2.460000	13.492676	0.000000
C 	2.460000	14.912957	0.000000
C 	3.690000	15.623098	0.000000
C 	6.150000	0.000000	0.000000
C 	4.920000	0.710141	0.000000
C 	4.920000	2.130422	0.000000
C 	6.150000	2.840563	0.000000
C 	6.150000	4.260845	0.000000
C 	4.920000	4.970986	0.000000
C 	4.920000	6.391267	0.000000
C 	6.150000	7.101408	0.000000
C 	6.150000	8.521690	0.000000
C 	4.920000	9.231831	0.000000
C 	4.920000	10.652112	0.000000
C 	6.150000	11.362253	0.000000
C 	6.150000	12.782535	0.000000
C 	4.920000	13.492676	0.000000
C 	4.920000	14.912957	0.000000
C 	6.150000	15.623098	0.000000
C 	8.610000	0.000000	0.000000
C 	7.380000	0.710141	0.000000
C 	7.380000	2.130422	0.000000
C 	8.610000	2.840563	0.000000
C 	8.610000	4.260845	0.000000
C 	7.380000	4.970986	0.000000
C 	7.380000	6.391267	0.000000
C 	8.610000	7.101408	0.000000
C 	8.610000	8.521690	0.000000
C 	7.380000	9.231831	0.000000
C 	7.380000	10.652112	0.000000
C 	8.610000	11.362253	0.000000
C 	8.610000	12.782535	0.000000
C 	7.380000	13.492676	0.000000
C 	7.380000	14.912957	0.000000
C 	8.610000	15.623098	0.000000
C 	11.070000	0.000000	0.000000
C 	9.840000	0.710141	0.000000
C 	9.840000	2.130422	0.000000
C 	11.070000	2.840563	0.000000
C 	11.070000	4.260845	0.000000
C 	9.840000	4.970986	0.000000
C 	9.840000	6.391267	0.000000
C 	11.070000	7.101408	0.000000
C 	11.070000	8.521690	0.000000
C 	9.840000	9.231831	0.000000
C 	9.840000	10.652112	0.000000
C 	11.070000	11.362253	0.000000
C 	11.070000	12.782535	0.000000
C 	9.840000	13.492676	0.000000
C 	9.840000	14.912957	0.000000
C 	11.070000	15.623098	0.000000
C 	13.530000	0.000000	0.000000
C 	12.300000	0.710141	0.000000
C 	12.300000	2.130422	0.000000
C 	13.530000	2.840563	0.000000
C 	13.530000	4.260845	0.000000
C 	12.300000	4.970986	0.000000
C 	12.300000	6.391267	0.000000
C 	13.530000	7.101408	0.000000
C 	13.530000	8.521690	0.000000
C 	12.300000	9.231831	0.000000
C 	12.300000	10.652112	0.000000
C 	13.530000	11.362253	0.000000
C 	13.530000	12.782535	0.000000
C 	12.300000	13.492676	0.000000
C 	12.300000	14.912957	0.000000
C 	13.530000	15.623098	0.000000
C 	15.990000	0.000000	0.000000
C 	14.760000	0.710141	0.000000
C 	14.760000	2.130422	0.000000
C 	15.990000	2.840563	0.000000
C 	15.990000	4.260845	0.000000
C 	14.760000	4.970986	0.000000
C 	14.760000	6.391267	0.000000
C 	15.990000	7.101408	0.000000
C 	15.990000	8.521690	0.000000
C 	14.760000	9.231831	0.000000
C 	14.760000	10.652112	0.000000
C 	15.990000	11.362253	0.000000
C 	15.990000	12.782535	0.000000
C 	14.760000	13.492676	0.000000
C 	14.760000	14.912957	0.000000
C 	15.990000	15.623098	0.000000
Cu 	8.596173	7.165947	2.852755
N 	10.000145	5.769198	2.844458
N 	8.648513	3.837026	2.884475
N 	7.191899	5.757372	2.861052
N 	11.922431	7.092812	3.000468
C 	11.339078	5.942674	2.955002
C 	11.975623	4.715663	3.064563
C 	13.318576	4.362722	3.209744
H 	14.097039	5.112824	3.238116
C 	13.629581	2.991739	3.326457
H 	14.658409	2.679633	3.443912
C 	12.607122	2.016916	3.298649
H 	12.853537	0.967242	3.395504
C 	11.265647	2.400911	3.151978
H 	10.471334	1.664521	3.136554
C 	10.990796	3.761960	3.036883
C 	9.796916	4.424988	2.908947
C 	7.375710	4.470735	2.815209
C 	6.097421	3.735641	2.696291
C 	5.785720	2.377458	2.626204
H 	6.560508	1.624689	2.660918
C 	4.425197	2.016578	2.508010
H 	4.145234	0.974218	2.450717
C 	3.418486	3.008207	2.461780
H 	2.377079	2.728930	2.368782
C 	3.763390	4.363967	2.536513
H 	3.010641	5.143079	2.503313
C 	5.112755	4.674905	2.654534
C 	5.791386	5.926660	2.750994
C 	11.273807	8.371356	2.968371
N 	9.983611	8.562998	2.861052
N 	7.209038	8.574220	2.844458
C 	6.026167	8.166817	2.817346
N 	5.228732	7.056993	2.738696
C 	5.429428	9.326005	2.917321
C 	4.052361	9.622065	2.964996
H 	3.298597	8.845917	2.908432
C 	3.658677	10.961483	3.093051
H 	2.604105	11.214041	3.134852
C 	4.626552	11.978430	3.172276
H 	4.304226	13.009759	3.275993
C 	5.998753	11.661379	3.119457
H 	6.730339	12.455207	3.184743
C 	6.376258	10.309061	2.990820
C 	7.574526	9.761815	2.929391
N 	8.689108	10.551670	2.980598
C 	9.815185	9.973850	2.939758
C 	11.067527	10.639309	3.098413
C 	11.378628	11.985573	3.239653
H 	10.604333	12.743827	3.209902
C 	12.725404	12.317913	3.433742
H 	13.003716	13.356477	3.553401
C 	13.707474	11.301804	3.484749
H 	14.741617	11.570090	3.646753
C 	13.346779	9.945186	3.333221
H 	14.089454	9.161057	3.379666
C 	11.999253	9.646756	3.136123
