8
Translation vectors: (2.4600000000000000,0,0) and (0,4.2608449866194382,0)
C   1.2300000000000000   0.0000000000000000   0.0000000000000000
C   0.0000000000000000   0.7101408311032397   0.0000000000000000
C   0.0000000000000000   2.1304224933097191   0.0000000000000000
C   1.2300000000000000   2.8405633244129587   0.0000000000000000
C   3.6899999999999999   0.0000000000000000   0.0000000000000000
C   2.4600000000000000   0.7101408311032397   0.0000000000000000
C   2.4600000000000000   2.1304224933097191   0.0000000000000000
C   3.6899999999999999   2.8405633244129587   0.0000000000000000
