36
11/04/2020 08:07, XYZ structure generated by mol3D Class, molSimplify
C 	1.230000	0.000000	0.000000
C 	0.000000	0.710141	0.000000
C 	0.000000	2.130422	0.000000
C 	1.230000	2.840563	0.000000
C 	1.230000	4.260845	0.000000
C 	0.000000	4.970986	0.000000
C 	0.000000	6.391267	0.000000
C 	1.230000	7.101408	0.000000
C 	3.690000	0.000000	0.000000
C 	2.460000	0.710141	0.000000
C 	2.460000	2.130422	0.000000
C 	3.690000	2.840563	0.000000
C 	3.690000	4.260845	0.000000
C 	2.460000	4.970986	0.000000
C 	2.460000	6.391267	0.000000
C 	3.690000	7.101408	0.000000
C 	6.150000	0.000000	0.000000
C 	4.920000	0.710141	0.000000
C 	4.920000	2.130422	0.000000
C 	6.150000	2.840563	0.000000
C 	6.150000	4.260845	0.000000
C 	4.920000	4.970986	0.000000
C 	4.920000	6.391267	0.000000
C 	6.150000	7.101408	0.000000
C 	2.821017	2.203372	3.000000
C 	1.473898	2.564441	3.000000
C 	1.112879	3.911783	3.000000
C 	2.098983	4.898036	3.000000
C 	3.446102	4.536968	3.000000
C 	3.807121	3.189626	3.000000
H 	3.103323	1.149791	3.000000
H 	0.702624	1.793380	3.000000
H 	0.059406	4.193903	3.000000
H 	1.816677	5.951617	3.000000
H 	4.217376	5.308028	3.000000
H 	4.860594	2.907505	3.000000
