36
11/27/2020 21:04, XYZ structure generated by mol3D Class, molSimplify
C 	1.230000	0.000000	0.000000
C 	0.000000	0.710141	0.000000
C 	0.000000	2.130422	0.000000
C 	1.230000	2.840563	0.000000
C 	1.230000	4.260845	0.000000
C 	0.000000	4.970986	0.000000
C 	0.000000	6.391267	0.000000
C 	1.230000	7.101408	0.000000
C 	3.690000	0.000000	0.000000
C 	2.460000	0.710141	0.000000
C 	2.460000	2.130422	0.000000
C 	3.690000	2.840563	0.000000
C 	3.690000	4.260845	0.000000
C 	2.460000	4.970986	0.000000
C 	2.460000	6.391267	0.000000
C 	3.690000	7.101408	0.000000
C 	6.150000	0.000000	0.000000
C 	4.920000	0.710141	0.000000
C 	4.920000	2.130422	0.000000
C 	6.150000	2.840563	0.000000
C 	6.150000	4.260845	0.000000
C 	4.920000	4.970986	0.000000
C 	4.920000	6.391267	0.000000
C 	6.150000	7.101408	0.000000
C 	3.690000	1.445703	3.000000
C 	2.482235	2.143128	3.000000
C 	2.482235	3.537999	3.000000
C 	3.690000	4.235424	3.000000
C 	4.897765	3.537999	3.000000
C 	4.897765	2.143128	3.000000
H 	3.690000	0.354956	3.000000
H 	1.537677	1.597961	3.000000
H 	1.537677	4.083166	3.000000
H 	3.690000	5.326171	3.000000
H 	5.842323	4.083166	3.000000
H 	5.842323	1.597961	3.000000
